Version 4
SHEET 1 880 680
WIRE -576 16 -608 16
WIRE -496 32 -496 16
WIRE -288 32 -496 32
WIRE -160 32 -288 32
WIRE 208 32 -160 32
WIRE 304 32 208 32
WIRE 208 144 208 32
WIRE -528 160 -624 160
WIRE -448 160 -464 160
WIRE -288 160 -288 112
WIRE -288 160 -368 160
WIRE 176 160 -288 160
WIRE 304 176 304 112
WIRE 304 176 240 176
WIRE 320 176 304 176
WIRE 368 176 320 176
WIRE -288 192 -288 160
WIRE -160 192 -160 112
WIRE 160 192 -160 192
WIRE 176 192 160 192
WIRE 208 240 208 208
WIRE -624 288 -624 240
WIRE 160 320 160 192
WIRE 320 320 320 176
WIRE 320 320 240 320
WIRE -288 368 -288 272
WIRE -160 384 -160 272
FLAG -624 288 0
FLAG 208 240 0
FLAG -608 16 0
FLAG -288 368 0
FLAG -160 384 0
SYMBOL voltage -624 144 R0
WINDOW 123 0 0 Left 0
WINDOW 39 0 0 Left 0
SYMATTR InstName V1
SYMATTR Value SINE(0 5 500)
SYMBOL res -352 144 R90
WINDOW 0 0 56 VBottom 2
WINDOW 3 32 56 VTop 2
SYMATTR InstName R2
SYMATTR Value 33k
SYMBOL res -272 128 R180
WINDOW 0 36 76 Left 2
WINDOW 3 36 40 Left 2
SYMATTR InstName R3
SYMATTR Value 10k
SYMBOL res -272 288 R180
WINDOW 0 36 76 Left 2
WINDOW 3 36 40 Left 2
SYMATTR InstName R4
SYMATTR Value 10k
SYMBOL res -144 128 R180
WINDOW 0 36 76 Left 2
WINDOW 3 36 40 Left 2
SYMATTR InstName R5
SYMATTR Value 10k
SYMBOL res -144 288 R180
WINDOW 0 36 76 Left 2
WINDOW 3 36 40 Left 2
SYMATTR InstName R6
SYMATTR Value 10k
SYMBOL res 256 304 R90
WINDOW 0 0 56 VBottom 2
WINDOW 3 32 56 VTop 2
SYMATTR InstName R7
SYMATTR Value 330k
SYMBOL res 320 128 R180
WINDOW 0 36 76 Left 2
WINDOW 3 36 40 Left 2
SYMATTR InstName R8
SYMATTR Value 3.3k
SYMBOL voltage -480 16 R90
WINDOW 0 -32 56 VBottom 2
WINDOW 3 32 56 VTop 2
WINDOW 123 0 0 Left 0
WINDOW 39 0 0 Left 0
SYMATTR InstName V2
SYMATTR Value 3.3
SYMBOL Comparators\\LT1017 208 176 R0
SYMATTR InstName U2
SYMBOL cap -464 144 R90
WINDOW 0 0 32 VBottom 2
WINDOW 3 32 32 VTop 2
SYMATTR InstName C1
SYMATTR Value 10µF
TEXT -578 304 Left 2 !.tran 0 .005 0
